src/Test_Network/C4_Master.dss
Clear
New Circuit.IEEE8500  
~ pu=1.05  r1=0  x1=0.001  r0=0  x0=0.001  
Redirect  LineCodes2.dss
Redirect  Triplex_Linecodes.dss
Redirect  C4_Lines.dss
Redirect  C4_Transformers.dss
Redirect  C4_LoadXfmrs.dss    ! Load Transformers
Redirect  C4_Triplex_Lines.dss
Redirect  C4_Loads.dss     ! Balanced Loads
Redirect  C4_Capacitors.dss
Redirect  C4_CapControls.dss
Redirect  C4_Regulators.dss
Set voltagebases=[115, 12.47,  0.48, 0.208]
Calcvoltagebases     ! This also establishes the bus list
Buscoords  C4_Buscoords.dss
